REMARK  11 active torsions:
REMARK  status: ('A' for Active; 'I' for Inactive)
REMARK    1  A    between atoms: C_2  and  O_1 
REMARK    2  A    between atoms: C_5  and  C_10 
REMARK    3  A    between atoms: C_6  and  O_21 
REMARK       I    between atoms: C_10  and  N_8 
REMARK       I    between atoms: C_11  and  N_13 
REMARK    4  A    between atoms: C_11  and  C_24 
REMARK    5  A    between atoms: C_31  and  N_13 
REMARK    6  A    between atoms: C_19  and  C_26 
REMARK    7  A    between atoms: C_23  and  C_30 
REMARK    8  A    between atoms: C_31  and  C_32 
REMARK    9  A    between atoms: C_32  and  O_33 
REMARK   10  A    between atoms: C_34  and  O_33 
REMARK   11  A    between atoms: C_34  and  N_35 
ROOT
HETATM    1  O           1      13.409  -5.624  20.306  0.00  0.00    -0.360 OA
HETATM    2  H           1      13.144  -5.923  21.192  0.00  0.00     0.217 HD
ENDROOT
BRANCH   1   3
HETATM    3  C           1      13.642  -4.283  20.336  0.00  0.00     0.075 A 
HETATM    4  C           1      13.497  -3.616  21.492  0.00  0.00     0.074 A 
HETATM    5  C           1      13.699  -2.294  21.613  0.00  0.00     0.084 A 
HETATM    6  C           1      14.108  -1.615  20.526  0.00  0.00     0.066 A 
HETATM    7  C           1      14.217  -2.267  19.353  0.00  0.00     0.030 A 
HETATM    8  C           1      13.995  -3.588  19.237  0.00  0.00    -0.020 A 
BRANCH   5   9
HETATM    9  O           1      13.480  -1.698  22.813  0.00  0.00    -0.360 OA
HETATM   10  H           1      13.757  -2.295  23.528  0.00  0.00     0.217 HD
ENDBRANCH   5   9
BRANCH   6  11
HETATM   11  C           1      14.411  -0.286  20.567  0.00  0.00     0.257 C 
HETATM   12  O           1      13.659   0.476  21.134  0.00  0.00    -0.267 OA
HETATM   13  N           1      15.380   0.231  19.723  0.00  0.00    -0.334 N 
HETATM   14  C           1      16.025  -0.486  18.615  0.00  0.00     0.180 C 
HETATM   15  C           1      15.588   1.663  19.536  0.00  0.00     0.136 C 
HETATM   16  C           1      16.144   0.571  17.490  0.00  0.00     0.046 C 
HETATM   17  C           1      15.403   1.815  18.016  0.00  0.00     0.039 C 
BRANCH  14  18
HETATM   18  C           1      17.401  -1.077  18.932  0.00  0.00     0.240 C 
HETATM   19  N           1      18.250  -0.238  19.595  0.00  0.00    -0.357 N 
HETATM   20  H           1      17.904   0.672  19.893  0.00  0.00     0.162 HD
HETATM   21  O           1      17.688  -2.214  18.644  0.00  0.00    -0.271 OA
BRANCH  19  22
HETATM   22  C           1      19.597  -0.637  20.007  0.00  0.00     0.149 C 
BRANCH  22  23
HETATM   23  C           1      19.556  -1.387  21.339  0.00  0.00     0.189 C 
BRANCH  23  24
HETATM   24  O           1      20.875  -1.609  21.773  0.00  0.00    -0.361 OA
BRANCH  24  25
HETATM   25  C           1      20.926  -2.307  23.000  0.00  0.00     0.434 C 
BRANCH  25  26
HETATM   26  N           1      22.329  -2.509  23.389  0.00  0.00     0.101 N 
HETATM   27  H           1      22.400  -3.202  24.154  0.00  0.00     0.315 HD
HETATM   28  H           1      22.858  -2.915  22.598  0.00  0.00     0.315 HD
ENDBRANCH  25  26
ENDBRANCH  24  25
ENDBRANCH  23  24
ENDBRANCH  22  23
ENDBRANCH  19  22
ENDBRANCH  14  18
BRANCH  17  29
HETATM   29  C           1      13.916   1.897  17.695  0.00  0.00    -0.052 A 
HETATM   30  C           1      13.151   0.818  17.445  0.00  0.00     0.007 A 
HETATM   31  C           1      11.838   0.934  17.188  0.00  0.00     0.001 A 
HETATM   32  C           1      11.259   2.142  17.179  0.00  0.00     0.000 A 
HETATM   33  C           1      12.002   3.229  17.430  0.00  0.00     0.001 A 
HETATM   34  C           1      13.313   3.101  17.687  0.00  0.00     0.007 A 
ENDBRANCH  17  29
ENDBRANCH   6  11
BRANCH   8  35
HETATM   35  C           1      14.172  -4.274  17.887  0.00  0.00     0.013 C 
HETATM   36  C           1      15.626  -4.169  17.396  0.00  0.00     0.015 C 
HETATM   37  C           1      13.187  -3.720  16.845  0.00  0.00     0.015 C 
ENDBRANCH   8  35
ENDBRANCH   1   3
TORSDOF 11
